Circuit: * C:\Users\Jairo.Magno\Documents\Faculdade\Python\Python_Medidor_Capacitor_Indutor\ltspice\ltspice_simulation.asc

.OP point found by inspection.

Date: Thu Sep 28 15:02:54 2023
Total elapsed time: 1.323 seconds.

tnom = 27
temp = 27
method = modified trap
totiter = 1975562
traniter = 1975562
tranpoints = 987782
accept = 896385
rejected = 91397
matrix size = 3
fillins = 0
solver = Normal
Avg thread counts: 1.0/1.0/1.0/1.0
Matrix Compiler1: 68 bytes object code size  0.2/0.2/[0.2]
Matrix Compiler2:      15 opcodes  0.1/[0.1]/0.1

