Circuit: * C:\Users\carlo\Desktop\Período_22.3\Python\Projeto Final\Python_Medidor_Capacitor_Indutor\ltspice\ltspice_simulation.asc

.OP point found by inspection.

Date: Sun Sep 24 12:35:35 2023
Total elapsed time: 0.125 seconds.

tnom = 27
temp = 27
method = modified trap
totiter = 355014
traniter = 355014
tranpoints = 177508
accept = 159946
rejected = 17562
matrix size = 3
fillins = 0
solver = Normal
Matrix Compiler1: 50 bytes object code size  0.0/0.0/[0.0]
Matrix Compiler2: 175 bytes object code size  0.0/0.0/[0.0]

